Info: SIMULATION PARAMETERS:
Info: TIMESTEP               2
Info: NUMBER OF STEPS        0
Info: STEPS PER CYCLE        20
Info: FIRST LDB TIMESTEP     100
Info: LAST LDB TIMESTEP     -1
Info: HOM BACKGROUND SCALING 1
Info: MIN ATOMS PER PATCH    40
Info: INITIAL TEMPERATURE    310
Info: CENTER OF MASS MOVING INITIALLY? NO
Info: DIELECTRIC             1
Info: EXCLUDE                SCALED ONE-FOUR
Info: 1-4 ELECTROSTATICS SCALED BY 1
Info: MODIFIED 1-4 VDW PARAMETERS WILL BE USED
Info: DCD FILENAME           solvate_complex_namDed.dcd
Info: DCD FREQUENCY          250
Info: DCD FIRST STEP         250
Info: NO EXTENDED SYSTEM TRAJECTORY OUTPUT
Info: NO VELOCITY DCD OUTPUT
Info: NO FORCE DCD OUTPUT
Info: OUTPUT FILENAME        solvate_complex_namDed
Info: BINARY OUTPUT FILES WILL BE USED
Info: RESTART FILENAME       solvate_complex_namDed.restart
Info: RESTART FREQUENCY      500
Info: BINARY RESTART FILES WILL BE USED
Info: SWITCHING ACTIVE
Info: SWITCHING ON           10
Info: SWITCHING OFF          12
Info: PAIRLIST DISTANCE      14
Info: PAIRLIST SHRINK RATE   0.01
Info: PAIRLIST GROW RATE     0.01
Info: PAIRLIST TRIGGER       0.3
Info: PAIRLISTS PER CYCLE    2
Info: PAIRLISTS ENABLED
Info: MARGIN                 0
Info: HYDROGEN GROUP CUTOFF  2.5
Info: PATCH DIMENSION        16.5
Info: ENERGY OUTPUT STEPS    100
Info: CROSSTERM ENERGY INCLUDED IN DIHEDRAL
Info: TIMING OUTPUT STEPS    1000
Info: PRESSURE OUTPUT STEPS  100
Info: LANGEVIN DYNAMICS ACTIVE
Info: LANGEVIN TEMPERATURE   310
Info: LANGEVIN USING BBK INTEGRATOR
Info: LANGEVIN DAMPING COEFFICIENT IS 0.5 INVERSE PS
Info: LANGEVIN DYNAMICS NOT APPLIED TO HYDROGENS
Info: USING VERLET I (r-RESPA) MTS SCHEME.
Info: C1 SPLITTING OF LONG RANGE ELECTROSTATICS
Info: PLACING ATOMS IN PATCHES BY HYDROGEN GROUPS
Info: RIGID BONDS TO HYDROGEN : ALL
Info:         ERROR TOLERANCE : 1e-08
Info:          MAX ITERATIONS : 100
Info: RIGID WATER USING SETTLE ALGORITHM
Info: RANDOM NUMBER SEED     1570270367
Info: USE HYDROGEN BONDS?    NO
Info: COORDINATE PDB         solvate_complex.pdb
Info: STRUCTURE FILE         solvate_complex.psf
Info: PARAMETER file: CHARMM format!
Info: PARAMETERS             par_all36_prot.prm
Info: PARAMETERS             par_all36_carb.prm
Info: PARAMETERS             par_all36_lipid.prm
Info: PARAMETERS             par_all36_na.prm
Info: PARAMETERS             adrenaline.par
Info: PARAMETERS             toppar_water_ions_namd.str
Info: PARAMETERS             par_all36m_prot.prm
Info: PARAMETERS             par_all36_carb.prm
Info: PARAMETERS             par_all36_cgenff.prm
Info: USING ARITHMETIC MEAN TO COMBINE L-J SIGMA PARAMETERS
Info: SKIPPING rtf SECTION IN STREAM FILE
Info: SUMMARY OF PARAMETERS:
Info: 1249 BONDS
Info: 3618 ANGLES
Info: 8979 DIHEDRAL
Info: 254 IMPROPER
Info: 12 CROSSTERM
Info: 473 VDW
Info: 82 VDW_PAIRS
Info: 0 NBTHOLE_PAIRS
Info: STRUCTURE SUMMARY:
Info: 28841 ATOMS
Info: 22372 BONDS
Info: 23203 ANGLES
Info: 24325 DIHEDRALS
Info: 1547 IMPROPERS
Info: 571 CROSSTERMS
Info: 0 EXCLUSIONS
Info: 24288 RIGID BONDS
Info: 62235 DEGREES OF FREEDOM
Info: 11123 HYDROGEN GROUPS
Info: 4 ATOMS IN LARGEST HYDROGEN GROUP
Info: 11123 MIGRATION GROUPS
Info: 4 ATOMS IN LARGEST MIGRATION GROUP
Info: TOTAL MASS = 182954 amu
Info: TOTAL CHARGE = 8.00001 e
Info: ADDED 69527 IMPLICIT EXCLUSIONS
Info: NONBONDED TABLE R-SQUARED SPACING: 0.0625
Info: NONBONDED TABLE SIZE: 769 POINTS
Info: ORIGINAL ATOMS MINMAX IS -25.522 -27.81 -58.221  24.037 24.919 68.066
Info: ADJUSTED ATOMS MINMAX IS -25.2991 -27.5632 -58.4132  23.8821 24.5892 68.3992
Info: REMOVING COM VELOCITY 0.00481904 0.0409759 -0.0387384
TCL: Minimizing for 1000 steps
ETITLE: TS BOND ANGLE DIHED IMPRP ELECT VDW BOUNDARY MISC KINETIC TOTAL TEMP POTENTIAL TOTAL3 TEMPAVG
ENERGY: 0 220356.8276 1423.3248 4894.2910 61.1226 -65667.9198 394224.1799 0.0000 0.0000 0.0000 555291.8261 0.0000 555291.8261 555291.8261 0.0000
ENERGY: 200 16418.8228 3667.5277 4807.1193 122.7207 -72892.4355 2443.2121 0.0000 0.0000 0.0000 -45433.0330 0.0000 -45433.0330 -45433.0330 0.0000
ENERGY: 400 9045.3750 3373.5817 4803.0484 139.2521 -78163.5713 1901.4990 0.0000 0.0000 0.0000 -58900.8152 0.0000 -58900.8152 -58900.8152 0.0000
ENERGY: 600 4888.0727 2890.1810 4813.7084 104.1416 -82812.9007 2138.0932 0.0000 0.0000 0.0000 -67978.7038 0.0000 -67978.7038 -67978.7038 0.0000
ENERGY: 800 2511.0052 2606.3812 4773.3968 97.9868 -87681.6031 3141.4754 0.0000 0.0000 0.0000 -74551.3577 0.0000 -74551.3577 -74551.3577 0.0000
ENERGY: 1000 1112.3570 2283.8091 4783.4045 81.2627 -94116.5013 5481.2596 0.0000 0.0000 0.0000 -80374.4084 0.0000 -80374.4084 -80374.4084 0.0000
TCL: Running for 5000000 steps
ETITLE: TS BOND ANGLE DIHED IMPRP ELECT VDW BOUNDARY MISC KINETIC TOTAL TEMP POTENTIAL TOTAL3 TEMPAVG
ENERGY: 1000 1112.3570 2283.8091 4783.4045 81.2627 -94116.5013 5481.2596 0.0000 0.0000 19168.7744 -61205.6340 309.9917 -80374.4084 -61220.5575 309.9917
ENERGY: 6600 1972.9754 5256.4107 5421.1432 302.7050 -88432.3681 4291.4589 0.0000 0.0000 18641.7276 -52545.9473 301.4684 -71187.6749 -52437.0008 301.8285
ENERGY: 12100 2000.7830 5295.4577 5438.6133 303.3387 -87911.1689 4104.3173 0.0000 0.0000 18863.5404 -51905.1186 305.0555 -70768.6590 -51797.7068 306.4436
ENERGY: 17700 1898.2812 5499.9245 5429.1220 338.4049 -87931.1594 4231.9291 0.0000 0.0000 19062.1635 -51471.3343 308.2676 -70533.4977 -51363.0076 309.9600
ENERGY: 23200 2072.4472 5347.5437 5417.6183 320.8967 -88004.7631 4085.8549 0.0000 0.0000 19072.8031 -51687.5993 308.4397 -70760.4024 -51574.1281 309.1749
ENERGY: 28800 2021.5907 5385.3364 5377.2372 313.9792 -87674.3150 4044.5009 0.0000 0.0000 19146.1045 -51385.5661 309.6251 -70531.6706 -51270.4713 310.0932
